
#======================================================================
# CRYSTAL DATA
#----------------------------------------------------------------------
data_VESTA_phase_1

_chemical_name_common                  'C6 H12 N O2, 0.5(C4 Cu O4 S4)'
_cell_length_a                         23.275999
_cell_length_b                         9.183700
_cell_length_c                         11.898000
_cell_angle_alpha                      90.000000
_cell_angle_beta                       117.028000
_cell_angle_gamma                      90.000000
_cell_volume                           2265.544705
_space_group_name_H-M_alt              'P 1'
_space_group_IT_number                 1

loop_
_space_group_symop_operation_xyz
   'x, y, z'

loop_
   _atom_site_label
   _atom_site_occupancy
   _atom_site_fract_x
   _atom_site_fract_y
   _atom_site_fract_z
   _atom_site_adp_type
   _atom_site_U_iso_or_equiv
   _atom_site_type_symbol
   Cu1        1.0     0.750000     0.750000     0.000000    Uiso  ? Cu
   Cu2        1.0     0.250000     0.250000     0.000000    Uiso  ? Cu
   Cu3        1.0     0.250000     0.750000     0.500000    Uiso  ? Cu
   Cu4        1.0     0.750000     0.250000     0.500000    Uiso  ? Cu
   S1         1.0     0.716620     0.627230     0.813120    Uiso  ? S
   S2         1.0     0.283380     0.372770     0.186880    Uiso  ? S
   S3         1.0     0.283380     0.627230     0.686880    Uiso  ? S
   S4         1.0     0.716620     0.372770     0.313120    Uiso  ? S
   S5         1.0     0.216620     0.127230     0.813120    Uiso  ? S
   S6         1.0     0.783380     0.872770     0.186880    Uiso  ? S
   S7         1.0     0.783380     0.127230     0.686880    Uiso  ? S
   S8         1.0     0.216620     0.872770     0.313120    Uiso  ? S
   S9         1.0     0.847470     0.792390     0.008340    Uiso  ? S
   S10        1.0     0.152530     0.207610     0.991660    Uiso  ? S
   S11        1.0     0.152530     0.792390     0.491660    Uiso  ? S
   S12        1.0     0.847470     0.207610     0.508340    Uiso  ? S
   S13        1.0     0.347470     0.292390     0.008340    Uiso  ? S
   S14        1.0     0.652530     0.707610     0.991660    Uiso  ? S
   S15        1.0     0.652530     0.292390     0.491660    Uiso  ? S
   S16        1.0     0.347470     0.707610     0.508340    Uiso  ? S
   O1         1.0     0.761850     0.680400     0.652500    Uiso  ? O
   O2         1.0     0.238150     0.319600     0.347500    Uiso  ? O
   O3         1.0     0.238150     0.680400     0.847500    Uiso  ? O
   O4         1.0     0.761850     0.319600     0.152500    Uiso  ? O
   O5         1.0     0.261850     0.180400     0.652500    Uiso  ? O
   O6         1.0     0.738150     0.819600     0.347500    Uiso  ? O
   O7         1.0     0.738150     0.180400     0.847500    Uiso  ? O
   O8         1.0     0.261850     0.819600     0.152500    Uiso  ? O
   O9         1.0     0.478090     0.665600     0.834500    Uiso  ? O
   O10        1.0     0.521910     0.334400     0.165500    Uiso  ? O
   O11        1.0     0.521910     0.665600     0.665500    Uiso  ? O
   O12        1.0     0.478090     0.334400     0.334500    Uiso  ? O
   O13        1.0     0.978090     0.165600     0.834500    Uiso  ? O
   O14        1.0     0.021910     0.834400     0.165500    Uiso  ? O
   O15        1.0     0.021910     0.165600     0.665500    Uiso  ? O
   O16        1.0     0.978090     0.834400     0.334500    Uiso  ? O
   O17        1.0     0.481860     0.908000     0.839000    Uiso  ? O
   O18        1.0     0.518140     0.092000     0.161000    Uiso  ? O
   O19        1.0     0.518140     0.908000     0.661000    Uiso  ? O
   O20        1.0     0.481860     0.092000     0.339000    Uiso  ? O
   O21        1.0     0.981860     0.408000     0.839000    Uiso  ? O
   O22        1.0     0.018140     0.592000     0.161000    Uiso  ? O
   O23        1.0     0.018140     0.408000     0.661000    Uiso  ? O
   O24        1.0     0.981860     0.592000     0.339000    Uiso  ? O
   O25        1.0     0.877900     0.765700     0.823500    Uiso  ? O
   O26        1.0     0.122100     0.234300     0.176500    Uiso  ? O
   O27        1.0     0.122100     0.765700     0.676500    Uiso  ? O
   O28        1.0     0.877900     0.234300     0.323500    Uiso  ? O
   O29        1.0     0.377900     0.265700     0.823500    Uiso  ? O
   O30        1.0     0.622100     0.734300     0.176500    Uiso  ? O
   O31        1.0     0.622100     0.265700     0.676500    Uiso  ? O
   O32        1.0     0.377900     0.734300     0.323500    Uiso  ? O
   C1         1.0     0.770500     0.686800     0.761500    Uiso  ? C
   C2         1.0     0.229500     0.313200     0.238500    Uiso  ? C
   C3         1.0     0.229500     0.686800     0.738500    Uiso  ? C
   C4         1.0     0.770500     0.313200     0.261500    Uiso  ? C
   C5         1.0     0.270500     0.186800     0.761500    Uiso  ? C
   C6         1.0     0.729500     0.813200     0.238500    Uiso  ? C
   C7         1.0     0.729500     0.186800     0.738500    Uiso  ? C
   C8         1.0     0.270500     0.813200     0.261500    Uiso  ? C
   C9         1.0     0.471600     0.786300     0.878300    Uiso  ? C
   C10        1.0     0.528400     0.213700     0.121700    Uiso  ? C
   C11        1.0     0.528400     0.786300     0.621700    Uiso  ? C
   C12        1.0     0.471600     0.213700     0.378300    Uiso  ? C
   C13        1.0     0.971600     0.286300     0.878300    Uiso  ? C
   C14        1.0     0.028400     0.713700     0.121700    Uiso  ? C
   C15        1.0     0.028400     0.286300     0.621700    Uiso  ? C
   C16        1.0     0.971600     0.713700     0.378300    Uiso  ? C
   C17        1.0     0.440200     0.637600     0.020400    Uiso  ? C
   C18        1.0     0.559800     0.362400     0.979600    Uiso  ? C
   C19        1.0     0.559800     0.637600     0.479600    Uiso  ? C
   C20        1.0     0.440200     0.362400     0.520400    Uiso  ? C
   C21        1.0     0.940200     0.137600     0.020400    Uiso  ? C
   C22        1.0     0.059800     0.862400     0.979600    Uiso  ? C
   C23        1.0     0.059800     0.137600     0.479600    Uiso  ? C
   C24        1.0     0.940200     0.862400     0.520400    Uiso  ? C
   C25        1.0     0.451800     0.789700     0.982000    Uiso  ? C
   C26        1.0     0.548200     0.210300     0.018000    Uiso  ? C
   C27        1.0     0.548200     0.789700     0.518000    Uiso  ? C
   C28        1.0     0.451800     0.210300     0.482000    Uiso  ? C
   C29        1.0     0.951800     0.289700     0.982000    Uiso  ? C
   C30        1.0     0.048200     0.710300     0.018000    Uiso  ? C
   C31        1.0     0.048200     0.289700     0.518000    Uiso  ? C
   C32        1.0     0.951800     0.710300     0.482000    Uiso  ? C
   C33        1.0     0.392300     0.886300     0.943400    Uiso  ? C
   C34        1.0     0.607700     0.113700     0.056600    Uiso  ? C
   C35        1.0     0.607700     0.886300     0.556600    Uiso  ? C
   C36        1.0     0.392300     0.113700     0.443400    Uiso  ? C
   C37        1.0     0.892300     0.386300     0.943400    Uiso  ? C
   C38        1.0     0.107700     0.613700     0.056600    Uiso  ? C
   C39        1.0     0.107700     0.386300     0.556600    Uiso  ? C
   C40        1.0     0.892300     0.613700     0.443400    Uiso  ? C
   C41        1.0     0.415600     0.645700     0.117800    Uiso  ? C
   C42        1.0     0.584400     0.354300     0.882200    Uiso  ? C
   C43        1.0     0.584400     0.645700     0.382200    Uiso  ? C
   C44        1.0     0.415600     0.354300     0.617800    Uiso  ? C
   C45        1.0     0.915600     0.145700     0.117800    Uiso  ? C
   C46        1.0     0.084400     0.854300     0.882200    Uiso  ? C
   C47        1.0     0.084400     0.145700     0.382200    Uiso  ? C
   C48        1.0     0.915600     0.854300     0.617800    Uiso  ? C
   C49        1.0     0.367700     0.886200     0.041100    Uiso  ? C
   C50        1.0     0.632300     0.113800     0.958900    Uiso  ? C
   C51        1.0     0.632300     0.886200     0.458900    Uiso  ? C
   C52        1.0     0.367700     0.113800     0.541100    Uiso  ? C
   C53        1.0     0.867700     0.386200     0.041100    Uiso  ? C
   C54        1.0     0.132300     0.613800     0.958900    Uiso  ? C
   C55        1.0     0.132300     0.386200     0.458900    Uiso  ? C
   C56        1.0     0.867700     0.613800     0.541100    Uiso  ? C
   C57        1.0     0.836600     0.751000     0.859200    Uiso  ? C
   C58        1.0     0.163400     0.249000     0.140800    Uiso  ? C
   C59        1.0     0.163400     0.751000     0.640800    Uiso  ? C
   C60        1.0     0.836600     0.249000     0.359200    Uiso  ? C
   C61        1.0     0.336600     0.251000     0.859200    Uiso  ? C
   C62        1.0     0.663400     0.749000     0.140800    Uiso  ? C
   C63        1.0     0.663400     0.251000     0.640800    Uiso  ? C
   C64        1.0     0.336600     0.749000     0.359200    Uiso  ? C
   H1         1.0     0.507600     0.679600     0.718000    Uiso  ? H
   H2         1.0     0.492400     0.320400     0.282000    Uiso  ? H
   H3         1.0     0.007600     0.179600     0.718000    Uiso  ? H
   H4         1.0     0.992400     0.820400     0.282000    Uiso  ? H
   H5         1.0     0.493200     0.893400     0.782300    Uiso  ? H
   H6         1.0     0.506800     0.106600     0.217700    Uiso  ? H
   H7         1.0     0.993200     0.393400     0.782300    Uiso  ? H
   H8         1.0     0.006800     0.606600     0.217700    Uiso  ? H
   H9         1.0     0.408400     0.585300     0.945000    Uiso  ? H
   H10        1.0     0.591600     0.414700     0.055000    Uiso  ? H
   H11        1.0     0.591600     0.585300     0.555000    Uiso  ? H
   H12        1.0     0.408400     0.414700     0.445000    Uiso  ? H
   H13        1.0     0.908400     0.085300     0.945000    Uiso  ? H
   H14        1.0     0.091600     0.914700     0.055000    Uiso  ? H
   H15        1.0     0.091600     0.085300     0.555000    Uiso  ? H
   H16        1.0     0.908400     0.914700     0.445000    Uiso  ? H
   H17        1.0     0.481000     0.581700     0.055300    Uiso  ? H
   H18        1.0     0.519000     0.418300     0.944700    Uiso  ? H
   H19        1.0     0.519000     0.581700     0.444700    Uiso  ? H
   H20        1.0     0.481000     0.418300     0.555300    Uiso  ? H
   H21        1.0     0.981000     0.081700     0.055300    Uiso  ? H
   H22        1.0     0.019000     0.918300     0.944700    Uiso  ? H
   H23        1.0     0.019000     0.081700     0.444700    Uiso  ? H
   H24        1.0     0.981000     0.918300     0.555300    Uiso  ? H
   H25        1.0     0.487800     0.835200     0.057500    Uiso  ? H
   H26        1.0     0.512200     0.164800     0.942500    Uiso  ? H
   H27        1.0     0.512200     0.835200     0.442500    Uiso  ? H
   H28        1.0     0.487800     0.164800     0.557500    Uiso  ? H
   H29        1.0     0.987800     0.335200     0.057500    Uiso  ? H
   H30        1.0     0.012200     0.664800     0.942500    Uiso  ? H
   H31        1.0     0.012200     0.335200     0.442500    Uiso  ? H
   H32        1.0     0.987800     0.664800     0.557500    Uiso  ? H
   H33        1.0     0.341400     0.737200     0.129700    Uiso  ? H
   H34        1.0     0.658600     0.262800     0.870300    Uiso  ? H
   H35        1.0     0.658600     0.737200     0.370300    Uiso  ? H
   H36        1.0     0.341400     0.262800     0.629700    Uiso  ? H
   H37        1.0     0.841400     0.237200     0.129700    Uiso  ? H
   H38        1.0     0.158600     0.762800     0.870300    Uiso  ? H
   H39        1.0     0.158600     0.237200     0.370300    Uiso  ? H
   H40        1.0     0.841400     0.762800     0.629700    Uiso  ? H
   H41        1.0     0.325000     0.692700     0.998300    Uiso  ? H
   H42        1.0     0.675000     0.307300     0.001700    Uiso  ? H
   H43        1.0     0.675000     0.692700     0.501700    Uiso  ? H
   H44        1.0     0.325000     0.307300     0.498300    Uiso  ? H
   H45        1.0     0.825000     0.192700     0.998300    Uiso  ? H
   H46        1.0     0.175000     0.807300     0.001700    Uiso  ? H
   H47        1.0     0.175000     0.192700     0.501700    Uiso  ? H
   H48        1.0     0.825000     0.807300     0.498300    Uiso  ? H
   H49        1.0     0.403300     0.987200     0.931000    Uiso  ? H
   H50        1.0     0.596700     0.012800     0.069000    Uiso  ? H
   H51        1.0     0.596700     0.987200     0.569000    Uiso  ? H
   H52        1.0     0.403300     0.012800     0.431000    Uiso  ? H
   H53        1.0     0.903300     0.487200     0.931000    Uiso  ? H
   H54        1.0     0.096700     0.512800     0.069000    Uiso  ? H
   H55        1.0     0.096700     0.487200     0.569000    Uiso  ? H
   H56        1.0     0.903300     0.512800     0.431000    Uiso  ? H
   H57        1.0     0.357700     0.851400     0.862000    Uiso  ? H
   H58        1.0     0.642300     0.148600     0.138000    Uiso  ? H
   H59        1.0     0.642300     0.851400     0.638000    Uiso  ? H
   H60        1.0     0.357700     0.148600     0.362000    Uiso  ? H
   H61        1.0     0.857700     0.351400     0.862000    Uiso  ? H
   H62        1.0     0.142300     0.648600     0.138000    Uiso  ? H
   H63        1.0     0.142300     0.351400     0.638000    Uiso  ? H
   H64        1.0     0.857700     0.648600     0.362000    Uiso  ? H
   H65        1.0     0.406200     0.546300     0.137400    Uiso  ? H
   H66        1.0     0.593800     0.453700     0.862600    Uiso  ? H
   H67        1.0     0.593800     0.546300     0.362600    Uiso  ? H
   H68        1.0     0.406200     0.453700     0.637400    Uiso  ? H
   H69        1.0     0.906200     0.046300     0.137400    Uiso  ? H
   H70        1.0     0.093800     0.953700     0.862600    Uiso  ? H
   H71        1.0     0.093800     0.046300     0.362600    Uiso  ? H
   H72        1.0     0.906200     0.953700     0.637400    Uiso  ? H
   H73        1.0     0.449100     0.689000     0.196500    Uiso  ? H
   H74        1.0     0.550900     0.311000     0.803500    Uiso  ? H
   H75        1.0     0.550900     0.689000     0.303500    Uiso  ? H
   H76        1.0     0.449100     0.311000     0.696500    Uiso  ? H
   H77        1.0     0.949100     0.189000     0.196500    Uiso  ? H
   H78        1.0     0.050900     0.811000     0.803500    Uiso  ? H
   H79        1.0     0.050900     0.189000     0.303500    Uiso  ? H
   H80        1.0     0.949100     0.811000     0.696500    Uiso  ? H
   H81        1.0     0.399700     0.934000     0.119100    Uiso  ? H
   H82        1.0     0.600300     0.066000     0.880900    Uiso  ? H
   H83        1.0     0.600300     0.934000     0.380900    Uiso  ? H
   H84        1.0     0.399700     0.066000     0.619100    Uiso  ? H
   H85        1.0     0.899700     0.434000     0.119100    Uiso  ? H
   H86        1.0     0.100300     0.566000     0.880900    Uiso  ? H
   H87        1.0     0.100300     0.434000     0.380900    Uiso  ? H
   H88        1.0     0.899700     0.566000     0.619100    Uiso  ? H
   H89        1.0     0.327000     0.942200     0.009100    Uiso  ? H
   H90        1.0     0.673000     0.057800     0.990900    Uiso  ? H
   H91        1.0     0.673000     0.942200     0.490900    Uiso  ? H
   H92        1.0     0.327000     0.057800     0.509100    Uiso  ? H
   H93        1.0     0.827000     0.442200     0.009100    Uiso  ? H
   H94        1.0     0.173000     0.557800     0.990900    Uiso  ? H
   H95        1.0     0.173000     0.442200     0.490900    Uiso  ? H
   H96        1.0     0.827000     0.557800     0.509100    Uiso  ? H
   N1         1.0     0.356350     0.735000     0.070200    Uiso  ? N
   N2         1.0     0.643650     0.265000     0.929800    Uiso  ? N
   N3         1.0     0.643650     0.735000     0.429800    Uiso  ? N
   N4         1.0     0.356350     0.265000     0.570200    Uiso  ? N
   N5         1.0     0.856350     0.235000     0.070200    Uiso  ? N
   N6         1.0     0.143650     0.765000     0.929800    Uiso  ? N
   N7         1.0     0.143650     0.235000     0.429800    Uiso  ? N
   N8         1.0     0.856350     0.765000     0.570200    Uiso  ? N

