data_Structure 1
_audit_creation_method	'Created with Diamond (www.crystalimpact.com)'
_audit_creation_date	15-08-05
_audit_update_record	15-08-05
_chemical_formula_sum	'Pd O2 C15 H11'
_chemical_formula_weight	329.671
_cell_length_a	17.3700
_cell_length_b	 5.7800
_cell_length_c	24.2300
_cell_angle_alpha	90.000
_cell_angle_beta	103.000
_cell_angle_gamma	90.000
_symmetry_int_tables_number	15
_symmetry_space_group_name_H-M	'I 1 2/c 1'
_symmetry_space_group_name_Hall	'-I_2yc'

loop_
_atom_type_symbol
_atom_type_oxidation_number
_atom_type_radius_bond
Pd	?	1.200
O	?	1.200
C	?	1.200
H	?	1.200


loop_
_atom_site_label
_atom_site_type_symbol
_atom_site_fract_x
_atom_site_fract_y
_atom_site_fract_z
_atom_site_occupancy
_atom_site_symmetry_multiplicity
_atom_site_Wyckoff_symbol
_atom_site_attached_hydrogens
_atom_site_calc_flag
_atom_site_thermal_displace_type
_atom_site_u_iso_or_equiv
Pd1 Pd  0.2500  0.2500  0.2500  1.000 ? ? ? d ? ?
O1 O  0.3055  0.5190  0.2898  1.000 ? ? ? d ? ?
O2 O  0.2866  0.3100  0.1808  1.000 ? ? ? d ? ?
C1 C  0.3501  0.6480  0.2671  1.000 ? ? ? d ? ?
C2 C  0.3651  0.6320  0.2143  1.000 ? ? ? d ? ?
C3 C  0.3303  0.4800  0.1725  1.000 ? ? ? d ? ?
C4 C  0.3849  0.8400  0.3068  1.000 ? ? ? d ? ?
C5 C  0.3839  0.8220  0.3642  1.000 ? ? ? d ? ?
C6 C  0.4158  0.9960  0.4029  1.000 ? ? ? d ? ?
C7 C  0.4585  1.1720  0.3848  1.000 ? ? ? d ? ?
C8 C  0.4634  1.1880  0.3280  1.000 ? ? ? d ? ?
C9 C  0.4305  1.0170  0.2914  1.000 ? ? ? d ? ?
C10 C  0.3459  0.4951  0.1144  1.000 ? ? ? d ? ?
C11 C  0.3920  0.6650  0.0967  1.000 ? ? ? d ? ?
C12 C  0.3996  0.6720  0.0409  1.000 ? ? ? calc ? ?
C13 C  0.3676  0.5040  0.0029  1.000 ? ? ? d ? ?
C14 C  0.3236  0.3280  0.0176  1.000 ? ? ? d ? ?
C15 C  0.3143  0.3210  0.0744  1.000 ? ? ? d ? ?
H1 H  0.4051  0.7420  0.2052  1.000 ? ? ? d ? ?
H2 H  0.3556  0.6920  0.3765  1.000 ? ? ? d ? ?
H3 H  0.4088  0.9920  0.4427  1.000 ? ? ? d ? ?
H4 H  0.4862  1.2890  0.4127  1.000 ? ? ? d ? ?
H5 H  0.4905  1.3220  0.3145  1.000 ? ? ? d ? ?
H6 H  0.4382  1.0200  0.2517  1.000 ? ? ? d ? ?
H7 H  0.4204  0.7780  0.1254  1.000 ? ? ? d ? ?
H9 H  0.3766  0.5150 -0.0366  1.000 ? ? ? d ? ?
H8 H  0.4305  0.8060  0.0300  1.000 ? ? ? d ? ?
H10 H  0.2992  0.2080 -0.0113  1.000 ? ? ? d ? ?
H11 H  0.2842  0.1920  0.0863  1.000 ? ? ? d ? ?


loop_
_geom_contact_atom_site_symbol_1
_geom_contact_atom_site_symbol_2
_geom_contact_site_symmetry_1
_geom_contact_site_symmetry_2
_geom_contact_distance
_geom_contact_publ_flag
C12 H8
C8 H5
C13 H9
C8 C12
C12 H5

loop_
_geom_bond_atom_site_symbol_1
_geom_bond_atom_site_symbol_2
_geom_bond_site_symmetry_1
_geom_bond_site_symmetry_2
_geom_bond_distance
_geom_bond_publ_flag
C7 H4
C6 H3
C5 H2

loop_
_geom_angle_atom_site_symbol_1
_geom_angle_atom_site_symbol_2
_geom_angle_atom_site_symbol_3
_geom_angle_site_symmetry_1
_geom_angle_site_symmetry_2
_geom_angle_site_symmetry_3
_geom_angle
_geom_angle_publ_flag
C13 C12
C11 C12
C7 C8
C9 C8
C12 C13
C14 C13
C15 C14
C13 C14
C7 H5
C8 C7
C6 C7
