
#######################################################################
#
#                 Cambridge Crystallographic Data Centre
#                                CCDC 
#
#######################################################################
#
# If this CIF has been generated from an entry in the Cambridge 
# Structural Database, then it will include bibliographic, chemical, 
# crystal, experimental, refinement or atomic coordinate data resulting 
# from the CCDC's data processing and validation procedures.
#
#######################################################################

data_3_at_295K
_symmetry_cell_setting           monoclinic
_symmetry_space_group_name_H-M   'P 21'
_symmetry_Int_Tables_number      4
_space_group_name_Hall           'P 2yb'
loop_
_symmetry_equiv_pos_site_id
_symmetry_equiv_pos_as_xyz
1 x,y,z
2 -x,1/2+y,-z
_cell_length_a                   9.649(2)
_cell_length_b                   11.032(3)
_cell_length_c                   12.819(3)
_cell_angle_alpha                90.00
_cell_angle_beta                 108.84(1)
_cell_angle_gamma                90.00
_cell_volume                     1291.45
loop_
_atom_site_label
_atom_site_type_symbol
_atom_site_fract_x
_atom_site_fract_y
_atom_site_fract_z
V V 0.28415(5) 0.10373(5) 0.68731(3)
O1 O 0.3761(3) -0.0163(3) 0.7202(2)
O2 O 0.3692(2) 0.1969(2) 0.59170(17)
O3 O 0.1209(2) 0.0683(2) 0.55420(17)
O4 O 0.1328(2) 0.0973(3) 0.75886(16)
O5 O 0.3794(2) 0.2274(2) 0.79831(18)
C1 C 0.3851(9) 0.3953(6) 0.4328(8)
H1A H 0.3010 0.4041 0.3681
H1B H 0.4614 0.4487 0.4278
H1C H 0.3590 0.4155 0.4969
C2 C 0.4445(8) 0.2205(8) 0.3329(5)
H2A H 0.3519 0.2326 0.2765
H2B H 0.4666 0.1354 0.3402
H2C H 0.5197 0.2623 0.3131
C3 C 0.5929(6) 0.2649(8) 0.5195(6)
H3A H 0.6270 0.1826 0.5272
H3B H 0.5956 0.2957 0.5902
H3C H 0.6547 0.3135 0.4907
C4 C 0.4372(4) 0.2694(3) 0.4413(3)
C5 C 0.3369(3) 0.1943(3) 0.4871(3)
C6 C 0.2166(3) 0.1340(3) 0.4189(3)
H6A H 0.2048 0.1317 0.3440
C7 C 0.1131(3) 0.0771(3) 0.4537(2)
C8 C -0.021(2) 0.0178(12) 0.3771(13)
C9 C -0.1535(10) 0.0878(12) 0.3831(8)
H9A H -0.1547 0.0879 0.4577
H9B H -0.2411 0.0501 0.3362
H9C H -0.1483 0.1697 0.3593
C10 C -0.0258(13) 0.0203(12) 0.2562(9)
H10A H -0.1154 -0.0158 0.2105
H10B H 0.0559 -0.0245 0.2488
H10C H -0.0206 0.1027 0.2336
C11 C -0.0423(13) -0.1088(10) 0.4126(9)
H11A H -0.0406 -0.1079 0.4878
H11B H 0.0352 -0.1598 0.4060
H11C H -0.1348 -0.1398 0.3665
C12 C -0.1313(5) 0.1481(7) 0.8071(6)
H12A H -0.2159 0.1127 0.8189
H12B H -0.1336 0.1323 0.7329
H12C H -0.1314 0.2341 0.8188
C13 C -0.0070(7) -0.0449(5) 0.8711(7)
H13A H -0.0863 -0.0749 0.8937
H13B H 0.0831 -0.0813 0.9156
H13C H -0.0242 -0.0649 0.7951
C14 C 0.0197(7) 0.1171(10) 1.0041(5)
H14A H 0.1201 0.1056 1.0484
H14B H -0.0411 0.0616 1.0274
H14C H -0.0094 0.1988 1.0126
C15 C 0.0033(4) 0.0944(5) 0.8855(3)
C16 C 0.1349(3) 0.1350(3) 0.8533(2)
C17 C 0.2418(4) 0.2094(3) 0.9177(3)
H17A H 0.2373 0.2297 0.9870
C18 C 0.3565(3) 0.2570(3) 0.8875(2)
C19 C 0.4648(4) 0.3473(3) 0.9597(3)
C20 C 0.5825(5) 0.2777(4) 1.0459(5)
H20A H 0.6501 0.3336 1.0935
H20B H 0.6338 0.2262 1.0103
H20C H 0.5383 0.2290 1.0886
C21 C 0.3898(5) 0.4337(4) 1.0199(4)
H21A H 0.3066 0.4713 0.9671
H21B H 0.4580 0.4951 1.0579
H21C H 0.3581 0.3885 1.0721
C22 C 0.5304(7) 0.4258(5) 0.8885(5)
H22A H 0.4530 0.4576 0.8271
H22B H 0.5946 0.3773 0.8620
H22C H 0.5846 0.4915 0.9320

#END
